$DATA1 SOURCE='PrimeSim HSPICE' VERSION='T-2022.06-1 linux64' PARAM_COUNT=0
.TITLE '.temp 25.0'
 pwr              temper           alter#          
 -2.404e-06        2.500e+01       4               
